APO_6T3D_ADT_SER.pdb
 OpenBabel09012319363D

 11 10  0  0  1  0  0  0  0  0999 V2000
   48.7900   51.9300   46.3400 N   0  0  0  0  0  0  0  0  0  0  0  0
   47.5100   51.3500   46.5500 C   0  0  2  0  0  0  0  0  0  0  0  0
   47.3800   49.8300   46.4100 C   0  0  0  0  0  0  0  0  0  0  0  0
   46.4500   49.2600   46.9700 O   0  0  0  0  0  0  0  0  0  0  0  0
   46.5400   52.0300   45.5100 C   0  0  0  0  0  0  0  0  0  0  0  0
   46.1300   53.3500   45.8600 O   0  0  0  0  0  0  0  0  0  0  0  0
   48.8500   52.7600   45.7600 H   0  0  0  0  0  0  0  0  0  0  0  0
   47.1400   51.7000   47.5200 H   0  0  0  0  0  0  0  0  0  0  0  0
   47.0600   51.9800   44.5600 H   0  0  0  0  0  0  0  0  0  0  0  0
   45.6400   51.4300   45.4300 H   0  0  0  0  0  0  0  0  0  0  0  0
   46.8900   53.9300   45.8000 H   0  0  0  0  0  0  0  0  0  0  0  0
  1  2  1  0  0  0  0
  2  8  1  1  0  0  0
  3  2  1  0  0  0  0
  3  4  2  0  0  0  0
  5  6  1  0  0  0  0
  5  2  1  0  0  0  0
  7  1  1  0  0  0  0
  9  5  1  0  0  0  0
 10  5  1  0  0  0  0
 11  6  1  0  0  0  0
M  END
$$$$
